9
Coordinates from ORCA-job traj E -15.128967764970
  C           0.01003031624199     -0.52748609750747      0.14122139137672
  C           0.01514200714551      0.91456172406150     -0.23826781057581
  H          -0.03832982250154      1.01422234368718     -1.32031221796747
  H           0.93355723893913      1.39615566855693      0.08942358584576
  H          -0.84047714568144      1.43415201161656      0.18590585203837
  Cl         -0.30978219161084     -1.59349531629196     -1.85816459214401
  H          -0.93537132225251     -1.02607664248181      0.28698095538583
  H           0.93246318974271     -1.08042830413408      0.07717457971954
  I           0.23276772997698     -0.53160538750686      2.63603825632108
