9
 energy: -15.093155999174 xtb: 6.6.1 (8d0f1dd)
C            0.14191572137942       -0.47189075533918        0.47385095351201
C            0.06056651657561        0.97486440499013       -0.10263307612525
H            0.06423314506269        0.86931219118222       -1.17724814462527
H            0.90247777356425        1.61139283935254        0.17714415828654
H           -0.86904436637579        1.47008532989395        0.17793441834787
Cl          -0.77493139700411       -1.89004703836299       -1.85526754719269
H           -0.60545080003349       -1.07160822228935       -0.11167440753132
H            1.06866549256823       -0.91621210197201        0.09895065773075
I            0.01156791426310       -0.57589664745533        2.31894298759738
9
 energy: -15.123318424813 xtb: 6.6.1 (8d0f1dd)
C            0.21451049798349       -0.44503695085067        0.41360228139652
C            0.06967208540762        0.96327194295275       -0.13057999770177
H            0.06760397955370        0.94828833072326       -1.22162745972976
H            0.89548638173427        1.59488078568425        0.19916942123142
H           -0.86024117980513        1.41741883576597        0.20592801651098
Cl          -0.95583381085646       -1.94154344409716       -1.80995683585865
H           -0.51349148142317       -1.08919514234395       -0.15925436115099
H            1.21098057462933       -0.83782382933190        0.16222196763015
I           -0.12868704722372       -0.61026052850257        2.34049696767211
9
 energy: -15.134002907615 xtb: 6.6.1 (8d0f1dd)
C            0.24497316619201       -0.42810151337901        0.37950463835891
C            0.07494051169324        0.98272567097686       -0.13638059899914
H            0.08128597246835        0.95918641118274       -1.22527658685759
H            0.89180382971062        1.62174316664943        0.19765077764310
H           -0.86476267113162        1.42529222441904        0.18771518923595
Cl          -1.01707379892722       -1.97317854227872       -1.79016163962725
H           -0.47229243188257       -1.09252166549721       -0.18612463959232
H            1.23222516559272       -0.82788771142821        0.16955760873247
I           -0.17109974371562       -0.66725804064494        2.40351525110588
9
 energy: -15.134304191889 xtb: 6.6.1 (8d0f1dd)
C            0.25018050139489       -0.41585241979585        0.33382829545461
C            0.07977202663500        0.99192256828292       -0.14805705864388
H            0.09350729009489        0.97798020866098       -1.23692089357294
H            0.89076748215651        1.62817407679928        0.20321241665443
H           -0.86544612773401        1.41899357861400        0.17785684406934
Cl          -1.04355728880599       -1.99159359398606       -1.78847856182450
H           -0.46803015332988       -1.09582422890372       -0.19747479698555
H            1.24780512981530       -0.81671296234005        0.17806088542860
I           -0.18499886022679       -0.69708722733149        2.47797286941990
9
 energy: -15.128342045852 xtb: 6.6.1 (8d0f1dd)
C            0.26582195738619       -0.41090353765152        0.28657869252773
C            0.08622197033857        0.99826104977349       -0.15614091654044
H            0.10511167845559        1.00863938955004       -1.24743929705004
H            0.88803308848337        1.63691959045303        0.21057834974168
H           -0.86766284169408        1.40774546210449        0.16662675691488
Cl          -1.07996414701133       -2.01662971986948       -1.79887395098765
H           -0.46171587626464       -1.10073953010980       -0.20144089902458
H            1.26917977661195       -0.80734834866005        0.18296593683700
I           -0.20502560630569       -0.71594435559020        2.55714532758144
9
 energy: -15.119118138243 xtb: 6.6.1 (8d0f1dd)
C            0.27918297707980       -0.40743157009997        0.23994683998595
C            0.09307912620575        1.00351003643926       -0.16379251030835
H            0.12163303532596        1.04237105811025       -1.25680929572088
H            0.88344554042198        1.64439681651940        0.22297666779694
H           -0.87206549229604        1.39291228487431        0.15055592738571
Cl          -1.11859760870071       -2.04366007741427       -1.81794623290196
H           -0.45623667937376       -1.10590571755067       -0.20348043462648
H            1.28715580900836       -0.79780121419790        0.18680821073793
I           -0.21759670767140       -0.72839161668042        2.64174082765117
9
 energy: -15.108592097726 xtb: 6.6.1 (8d0f1dd)
C            0.29151468153443       -0.40370699082099        0.19492820028327
C            0.09818890193765        1.00820661841991       -0.17113154849725
H            0.13740178848334        1.06767647096048       -1.26428585951046
H            0.87838248071198        1.64925770324507        0.23439165133754
H           -0.87737401124104        1.37990722691863        0.13336834638347
Cl          -1.14805844261827       -2.06433843006076       -1.84216483384659
H           -0.45473783136574       -1.10783167620421       -0.20142647054145
H            1.29999868972757       -0.79122245662318        0.18525818615460
I           -0.22531625717000       -0.73794846583497        2.73106232823690
9
 energy: -15.098172171490 xtb: 6.6.1 (8d0f1dd)
C            0.29812615444391       -0.40354498149822        0.15696082983751
C            0.10324096345843        1.00944241055282       -0.17620946534213
H            0.15559600339196        1.09525526734283       -1.27017815794874
H            0.87286555659337        1.65191768218639        0.24650032331276
H           -0.88421351053866        1.36456673163580        0.11109003667185
Cl          -1.17765215885626       -2.09104882018532       -1.90479726251463
H           -0.45996820337588       -1.10797174094630       -0.18554150606975
H            1.30734178516104       -0.78537442824525        0.18575913091158
I           -0.21533659027800       -0.73324212084277        2.83641607114156
9
 energy: -15.088758390845 xtb: 6.6.1 (8d0f1dd)
C            0.29946870688723       -0.40249692379954        0.12727057138032
C            0.10460590706030        1.00979884113379       -0.18027890618702
H            0.17327210267434        1.11094779776452       -1.27371209467032
H            0.86694413284926        1.65106916181882        0.25700041467110
H           -0.89153455614207        1.35426618999114        0.09079351412610
Cl          -1.20103191158376       -2.11965406553522       -2.00883804467832
H           -0.47145369902267       -1.10641500511082       -0.15564247877217
H            1.30649429420173       -0.78395049683930        0.18762293876584
I           -0.18676497692443       -0.71356549942343        2.95578408536452
9
 energy: -15.080403419390 xtb: 6.6.1 (8d0f1dd)
C            0.29110262460188       -0.40716315000069        0.09421655868038
C            0.09987416159717        1.00450921896832       -0.18974445317315
H            0.18247280680646        1.12115722025434       -1.28050561532810
H            0.86205839013350        1.63715441305388        0.26099449946062
H           -0.89896307679108        1.34647505902721        0.07438430659073
Cl          -1.18155325567024       -2.10581760471782       -2.07583462213799
H           -0.49514028590927       -1.11150204347085       -0.13625204239899
H            1.29375768199390       -0.79478579963955        0.18051016484488
I           -0.15360904676239       -0.69002731347489        3.07223120346167
9
 energy: -15.074031335594 xtb: 6.6.1 (8d0f1dd)
C            0.22997041039566       -0.43960877767365        0.08293000752298
C            0.07752357822984        0.97005609447464       -0.21931295397818
H            0.18976379823201        1.13531398377441       -1.30549833624847
H            0.85466312696754        1.57420660178306        0.24864729819850
H           -0.91836262734099        1.32906470133805        0.03398465345873
Cl          -1.01346660973937       -1.96162721524708       -2.12819470608280
H           -0.59015531499796       -1.12686821012664       -0.05782858807058
H            1.23176066279817       -0.84852414234691        0.10954344772650
I           -0.06169702454497       -0.63201303597589        3.23572917747344
9
 energy: -15.131103140616 xtb: 6.6.1 (8d0f1dd)
C            0.17171149086657       -0.54430757964733       -0.21758986552271
C            0.03104252926466        0.92475306471707       -0.31702526411933
H            0.14461397258420        1.13337269708834       -1.36727498721659
H            0.83089740213630        1.46847612656750        0.19280733033208
H           -0.91795748480620        1.31870992035938        0.04463685067587
Cl          -0.62303952253195       -1.54094692421647       -1.75110555614991
H           -0.67985619561856       -1.12345575016961        0.29665348088881
H            1.14033269590267       -0.96023837372669       -0.02238846928232
I           -0.09774488779792       -0.67636318097217        3.14128648039444
9
 energy: -15.159171316319 xtb: 6.6.1 (8d0f1dd)
C            0.07018091607399       -0.63320632855555       -0.27678716397666
C            0.01196441401024        0.88410847175001       -0.36524796012047
H            0.16395899802719        1.21321790308554       -1.39101480509662
H            0.79322100751019        1.32002279776871        0.25377229546027
H           -0.95069159965658        1.25981644800258       -0.02811575550393
Cl          -0.51270815236797       -1.40259165398152       -1.77117429713777
H           -0.57390301239490       -1.00689620337984        0.52010816025084
H            1.08433317929284       -0.99416647261440       -0.10365476230737
I           -0.08635575049523       -0.64030496207551        3.16211428843204
9
 energy: -15.160807861558 xtb: 6.6.1 (8d0f1dd)
C            0.08582584381212       -0.63070820288332       -0.28399533119571
C            0.01242453949669        0.88001507035126       -0.37753761600381
H            0.24296562140355        1.22541725915720       -1.38477306539495
H            0.73890382534215        1.30859627157396        0.30966411122501
H           -0.97955193981241        1.23864298950813       -0.11012095080160
Cl          -0.59778805894067       -1.38183284466800       -1.76422541366694
H           -0.49862020541449       -1.02049573335032        0.54799271076865
H            1.11481824859492       -0.99131975476897       -0.22883573889570
I           -0.11897787448210       -0.62831505491991        3.29183129396540
9
 energy: -15.162336236296 xtb: 6.6.1 (8d0f1dd)
C            0.11081816654887       -0.63097453087038       -0.31544129720444
C            0.01922656479518        0.87783202314689       -0.39031458360222
H            0.34918062775217        1.24876197517363       -1.36124393416062
H            0.65822134320416        1.30061943932665        0.38497330056149
H           -1.00533314752512        1.20561232490964       -0.22017846826289
Cl          -0.73813646366050       -1.37270015852625       -1.70348888454104
H           -0.36375074205608       -1.02581526938716        0.58154273618347
H            1.14696390861100       -0.97791177755258       -0.37007489202221
I           -0.17719025766993       -0.62542402622040        3.39422602304880
9
 energy: -15.162722666859 xtb: 6.6.1 (8d0f1dd)
C            0.12371872812762       -0.62998682865968       -0.34200334534615
C            0.02234521506661        0.87842535386028       -0.39660518313183
H            0.37412112301915        1.25619105157934       -1.35346431392619
H            0.63585995751386        1.30108427883485        0.39500062300490
H           -1.00512946440457        1.20227457461863       -0.25279360058176
Cl          -0.78199094272198       -1.37907673779618       -1.68594555761819
H           -0.30797413158102       -1.02315249650244        0.57966450010574
H            1.15410655155339       -0.97334978967829       -0.44032765607347
I           -0.21505703657330       -0.63240940625646        3.49647453356727
9
 energy: -15.162663297170 xtb: 6.6.1 (8d0f1dd)
C            0.13345708566994       -0.62948297501527       -0.36343882790880
C            0.02556585455104        0.87885892475058       -0.40700674823309
H            0.38249031790175        1.26449210454075       -1.35891214073836
H            0.63076392490957        1.29964455532362        0.39248187017844
H           -1.00531456056335        1.19488508307020       -0.26899587400806
Cl          -0.81027914243456       -1.37447478366418       -1.68345929837946
H           -0.27118975859141       -1.02757315053818        0.56925081508470
H            1.16238704539511       -0.96834751692415       -0.48749134048069
I           -0.24788076683833       -0.63800224154334        3.60757154448567
9
 energy: -15.162434322557 xtb: 6.6.1 (8d0f1dd)
C            0.14003447151331       -0.62967229083289       -0.38424748772211
C            0.02775010906501        0.87890559956752       -0.41683816741751
H            0.38489101747433        1.27226733429899       -1.36537694218727
H            0.63012675448074        1.29652425137732        0.38658712007163
H           -1.00415264702854        1.19106091302830       -0.27755528944460
Cl          -0.82536670885097       -1.37106893804740       -1.68990238275252
H           -0.24608477371620       -1.03282296733970        0.55440941015188
H            1.16742601979472       -0.96459310912234       -0.52785542511882
I           -0.27462424273264       -0.64060079292977        3.72077916441966
9
 energy: -15.162133450393 xtb: 6.6.1 (8d0f1dd)
C            0.14552653268886       -0.63014693512899       -0.40426723533362
C            0.02958058805006        0.87856696199180       -0.42616828575479
H            0.38435866749955        1.27944830829806       -1.37240857650489
H            0.63182645384243        1.29262791212018        0.37927874314710
H           -1.00293347903060        1.18697887133181       -0.28308854963712
Cl          -0.83522466644639       -1.36567707797009       -1.70196147958502
H           -0.22698999417006       -1.03998783423319        0.53681471822008
H            1.17179310866710       -0.96117443798110       -0.56352253059184
I           -0.29793721110120       -0.64063576842845        3.83532319604044
9
 energy: -15.161817572914 xtb: 6.6.1 (8d0f1dd)
C            0.15008631155837       -0.63108453246819       -0.42424417924414
C            0.03098775071205        0.87771136518591       -0.43463340174092
H            0.38243235216409        1.28638750781980       -1.37876748167678
H            0.63434538626081        1.28752820968172        0.37220714516180
H           -1.00181593740291        1.18277170484596       -0.28651048993466
Cl          -0.84110551046720       -1.35902225087892       -1.71881970097823
H           -0.21239990393792       -1.04898190681328        0.51676327719345
H            1.17556421174128       -0.95805947482733       -0.59635652519296
I           -0.31809466062881       -0.63725062254564        3.95036135641278
