17
 Energy =        -309.82098112 Eh        #Cluster:     1
  C     1.8550841941    -0.0000230069    -0.0942913024   
  C     1.0770159050    -1.2573667318     0.2911791006   
  C    -0.3148642869    -1.2764668786    -0.3688248092   
  H     0.9559781451    -1.2903547026     1.3825699956   
  H     1.6258162000    -2.1608840521     0.0022326674   
  C    -1.0750350549    -0.0000006200    -0.0935243725   
  H    -0.9143477918    -2.1312867807    -0.0418141347   
  H    -0.1846991187    -1.3448058075    -1.4597766811   
  C    -0.3148692738     1.2764805951    -0.3687737198   
  C     1.0770613277     1.2573624165     0.2911252729   
  H    -0.9143347268     2.1312532152    -0.0415985531   
  H    -0.1848155688     1.3449991629    -1.4597251664   
  H     0.9560944623     1.2904645738     1.3825203588   
  H     1.6258590988     2.1608542092     0.0020900690   
  H     2.0390381543    -0.0000498563    -1.1783426484   
  H     2.8349659186    -0.0000210637     0.3980405588   
  O    -2.2237864696     0.0000000388     0.3214404209   
