14
 Energy =        -307.65065846 Eh        #Cluster:     1
  C     -2.0659812777     -0.9790245736     -0.0104103689    
  C     -0.9961370428      0.0739462490      0.0132068871    
  H     -2.9816021719     -0.5797190438      0.4277162415    
  H     -1.7493587786     -1.8848184298      0.5101214620    
  H     -2.2676630140     -1.2399057968     -1.0557379490    
  O     -1.1977036739      1.2722275583     -0.0003156325    
  O      0.2348926528     -0.4716985032      0.0219601186    
  C      1.3538689278      0.4625669355     -0.0122981961    
  C      2.6219012458     -0.3573070571     -0.0043093441    
  H      1.2843414427      1.1201337123      0.8608938161    
  H      1.2664025245      1.0770620326     -0.9147873578    
  H      2.6864038176     -0.9709313733      0.8992309101    
  H      3.4857853405      0.3140934739     -0.0270827740    
  H      2.6715566426     -1.0122722902     -0.8793513361    
14
 Energy =        -307.65017457 Eh        #Cluster:     2
  C     -2.0711701353     -0.8729049682      0.1513153965    
  C     -0.8840449254      0.0343870073      0.0046029790    
  H     -2.1177280592     -1.6043548454     -0.6580213425    
  H     -2.9845289129     -0.2782498339      0.1900950556    
  H     -1.9705930027     -1.4204960866      1.0955519548    
  O     -0.8567536863      1.2029089402      0.3357787237    
  O      0.1687171908     -0.6204063082     -0.5258533211    
  C      1.4144338376      0.1283269722     -0.6503578516    
  C      2.1858416426      0.1181168964      0.6524835371    
  H      1.1830706492      1.1461018636     -0.9774995735    
  H      1.9588290199     -0.3927278506     -1.4418454688    
  H      1.6342951267      0.6387705074      1.4402231847    
  H      3.1445051390      0.6276896228      0.5095214272    
  H      2.3869871608     -0.9077847064      0.9758261034    
