73
 Energy =        -1168.3616828200 Eh        #Cluster:     1
  C     -4.9975629632      0.2178100729     -0.4979779588    
  C     -6.4454337314     -0.1802629321     -0.6615060220    
  C     -7.3542584123      0.7612867540      0.1389952621    
  H     -6.6015947814     -1.2160364635     -0.3392326692    
  H     -6.7350667161     -0.1074943029     -1.7203206165    
  C     -4.7241477204      1.6347060945     -0.8253708616    
  C     -5.6546462467      2.6218394444     -0.1557945864    
  C     -7.1268870373      2.2098930357     -0.2962222401    
  H     -5.4957359282      3.6267810006     -0.5612130113    
  H     -5.4010794512      2.6639188414      0.9144227494    
  H     -7.4376314805      2.3079437486     -1.3453313948    
  H     -7.7622828150      2.8752960887      0.2996720933    
  O     -7.1429803562      0.5913920450      1.5505747797    
  H     -8.4034205255      0.4886585870     -0.0295223109    
  C     -4.0777940681     -0.6575278892     -0.0267880391    
  C     -3.7631333983      2.0171471443     -1.6733434978    
  H     -3.1159230735      1.2915830796     -2.1588582409    
  H     -3.6102819560      3.0679802689     -1.9078851040    
  C     -2.6941141246     -0.3633440321      0.2667946235    
  H     -4.4326037832     -1.6676376603      0.1746303633    
  C     -1.7438004068     -1.2514419272      0.6281634466    
  H     -2.4065560920      0.6830002855      0.1917317981    
  C     -1.9339699368     -2.7414720729      0.7548465687    
  C     -0.9270652528     -3.5161359139     -0.1181027950    
  H     -2.9521103439     -3.0540000691      0.5074457911    
  H     -1.7579572473     -3.0172419756      1.8067356734    
  C      0.5221140173     -3.0630773134      0.1062601992    
  H     -1.1971028257     -3.3879288802     -1.1739537753    
  H     -1.0144740319     -4.5880413219      0.0977725894    
  C      0.6806380896     -1.5461637354     -0.0657251172    
  H      1.1758989037     -3.6124786709     -0.5792173161    
  H      0.8311792353     -3.3309243607      1.1279100874    
  C     -0.3267240569     -0.8565667927      0.9101629142    
  H     -0.0770589927     -1.2725899754      1.9033364315    
  C      0.1009814777      0.6082259770      0.9140497586    
  H     -6.1891526290      0.5162610297      1.6964228027    
  C      1.6436047238      0.5370619205      0.8011788739    
  H     -0.2374047388      1.1332385071      1.8134792349    
  H     -0.3203004967      1.1390759791      0.0530505438    
  C      2.0117281306     -0.9371235771      0.4552606096    
  H      2.1366905805      0.8482412036      1.7274403948    
  H      2.0104751090      1.2089650906      0.0164148437    
  H      2.2525343183     -1.4679360199      1.3909570028    
  C      3.2640996864     -1.0102497959     -0.4418309929    
  C      0.4171195766     -1.1234277937     -1.5171765471    
  H      0.6351895798     -0.0620626013     -1.6729753995    
  H     -0.6275396254     -1.2867487483     -1.7995422965    
  H      1.0463380765     -1.6963684852     -2.2071082583    
  H      3.0537096303     -0.4630779754     -1.3725785239    
  C      3.6812130404     -2.4456145361     -0.7963587673    
  C      4.4134007110     -0.3240927882      0.2474899296    
  C      5.0832082846      0.7245575731     -0.2260781933    
  H      4.7135346329     -0.7555146739      1.2078110551    
  H      4.7816977004      1.1542747279     -1.1868771646    
  C      6.2268606411      1.4155994693      0.4623597149    
  C      5.7992557540      2.8448263914      0.8342518353    
  C      7.5001057868      1.3958863194     -0.4190898522    
  H      6.4559992882      0.8660515718      1.3895260425    
  H      7.2509988569      1.9100622821     -1.3616273353    
  C      7.9154539952     -0.0404831890     -0.7484540743    
  C      8.6676658580      2.1363159005      0.2392392972    
  H      5.6518733123      3.4497056838     -0.0693772750    
  H      6.5452103445      3.3435644747      1.4600104941    
  H      4.8536350452      2.8272503124      1.3859933336    
  H      7.1208316824     -0.5814242373     -1.2711617361    
  H      8.1441084693     -0.5912788614      0.1733840784    
  H      8.8117749097     -0.0519270718     -1.3782795487    
  H      8.4688202959      3.2048698239      0.3604958557    
  H      9.5746791419      2.0342185625     -0.3666573147    
  H      8.8785785327      1.7142064247      1.2304657111    
  H      2.9492104804     -2.9348638246     -1.4439309708    
  H      3.7941461362     -3.0528034645      0.1102627404    
  H      4.6428711990     -2.4403758474     -1.3208637667    
73
 Energy =        -1168.3593389200 Eh        #Cluster:     2
  C     -4.9001921765      0.1903097685     -0.3285460532    
  C     -6.3547630853     -0.1669670361     -0.1353905454    
  C     -7.1149401499      1.0077813515      0.4939302881    
  H     -6.4562422101     -1.0592939799      0.4927264443    
  H     -6.8181175147     -0.3834400044     -1.1093901170    
  C     -4.6872475192      1.4377476867     -1.0960591131    
  C     -5.4891224636      2.6203283037     -0.5994307084    
  C     -6.9639142606      2.2590547469     -0.3726403453    
  H     -5.4011367799      3.4583170649     -1.2990650497    
  H     -5.0575713592      2.9536197858      0.3566975437    
  H     -7.4487055565      2.0689829816     -1.3398863701    
  H     -7.4884006421      3.0974689208      0.1002412525    
  O     -6.6690039573      1.2364423353      1.8412343737    
  H     -8.1777408482      0.7506030258      0.5823395852    
  C     -3.9134302340     -0.5511364444      0.2289635282    
  C     -3.8875435667      1.5111359971     -2.1655251467    
  H     -3.3332931407      0.6451788347     -2.5176838840    
  H     -3.7776630221      2.4408471167     -2.7189573184    
  C     -2.5014635402     -0.2467353032      0.1975731125    
  H     -4.2268546070     -1.4401481260      0.7750501060    
  C     -1.5007748152     -1.0199858734      0.6703091671    
  H     -2.2343439732      0.7105987987     -0.2442836430    
  C     -1.6602978380     -2.3820684681      1.2966568523    
  C     -0.7748650861     -3.4359249825      0.6033024622    
  H     -2.7007553643     -2.7182858980      1.2983216745    
  H     -1.3437866491     -2.3086802411      2.3494111129    
  C      0.6872178792     -2.9874233553      0.4740224970    
  H     -1.1860521000     -3.6507345326     -0.3911718273    
  H     -0.8228769141     -4.3740506772      1.1696520134    
  C      0.8063959718     -1.6203453563     -0.2138343078    
  H      1.2488816712     -3.7563073072     -0.0666327214    
  H      1.1330169024     -2.9105566457      1.4772552056    
  C     -0.0620133377     -0.6101972989      0.6009695447    
  H      0.3317015164     -0.6752008294      1.6324738541    
  C      0.3433568737      0.7507100056      0.0465219845    
  H     -5.7044467722      1.1566485170      1.8480950691    
  C      1.8635402762      0.5963794325     -0.1999410359    
  H      0.1070937081      1.5675078259      0.7367035455    
  H     -0.1812399414      0.9593489500     -0.8926976880    
  C      2.1954202835     -0.9266896509     -0.1076831375    
  H      2.4395340711      1.1656215744      0.5347832903    
  H      2.1489562462      0.9858339174     -1.1844979990    
  H      2.5664284268     -1.1488993310      0.9052048289    
  C      3.2834619766     -1.3361712634     -1.1101508598    
  C      0.3298480529     -1.6925831820     -1.6715000068    
  H      0.5323377099     -0.7619207620     -2.2112059632    
  H     -0.7479057714     -1.8741352207     -1.7302770118    
  H      0.8363021249     -2.5025921245     -2.2071051788    
  H      2.9205431583     -1.0697972312     -2.1155555446    
  C      3.5984413546     -2.8433680674     -1.1201353685    
  C      4.5908546497     -0.6013413879     -0.9116915278    
  C      5.0293336138     -0.0010860339      0.1936229979    
  H      5.2632462875     -0.6366940020     -1.7736189554    
  H      4.3943459701      0.0417994849      1.0817640548    
  C      6.3826804358      0.6342334796      0.3538761409    
  C      7.1764793211     -0.1379544660      1.4204084657    
  C      6.2475592663      2.1379429248      0.6977781212    
  H      6.9182212773      0.5583339035     -0.6060612428    
  H      5.6564194041      2.2067291339      1.6257518761    
  C      5.4996311169      2.8869739654     -0.4082544219    
  C      7.6066582645      2.7986721916      0.9458220848    
  H      6.7200493805     -0.0061892695      2.4096224943    
  H      8.2159389444      0.1979815016      1.4775064360    
  H      7.1801916743     -1.2084495705      1.1907326084    
  H      4.5033523619      2.4673977930     -0.5782603588    
  H      6.0555320102      2.8221935763     -1.3527911622    
  H      5.3885419555      3.9469379971     -0.1545957969    
  H      8.1127288632      2.3916459178      1.8257337442    
  H      7.4845858600      3.8761651368      1.1023817299    
  H      8.2656744540      2.6597205049      0.0787801194    
  H      2.7644630896     -3.4358513036     -1.5048773393    
  H      3.8344316991     -3.1901845415     -0.1070988413    
  H      4.4694573808     -3.0450795021     -1.7537635336    
