14
 Energy =        -307.7047471232 Eh        #Cluster:     1
  C     -2.1113695169     -0.5841920129      0.3273230131    
  C     -0.8507311325      0.1131967586     -0.0537208474    
  H     -2.2347545611     -1.5110285053     -0.2235083041    
  H     -2.9599873319      0.0726026155      0.1607892007    
  H     -2.0639290055     -0.8270893581      1.3879583790    
  O     -0.7118673318      1.3045607414     -0.1355009729    
  O      0.1224705224     -0.7845536275     -0.2752989761    
  C      1.4140119803     -0.2529591017     -0.5933820215    
  C      2.1630285879      0.1184912302      0.6618285507    
  H      1.2994324825      0.6129797735     -1.2419393435    
  H      1.9233232549     -1.0453382430     -1.1388715586    
  H      1.6404412978      0.9153263893      1.1824656488    
  H      3.1640944691      0.4636462981      0.4116880354    
  H      2.2444574500     -0.7419649076      1.3215297377    
14
 Energy =        -307.7041477403 Eh        #Cluster:     2
  C     -2.1185645360     -0.7347930433      0.2391968214    
  C     -0.9699484643      0.1689873576     -0.0507361621    
  H     -2.9120582474     -0.1693372841      0.7218256058    
  H     -1.8286177410     -1.5796197324      0.8542905865    
  H     -2.5059663500     -1.1071730568     -0.7087989126    
  O     -1.0637921199      1.2996472329     -0.4484517409    
  O      0.1939583763     -0.4601475328      0.1705620250    
  C      1.3746967754      0.2981659645     -0.1092427977    
  C      2.5539171770     -0.5743631221      0.2261377508    
  H      1.3675412518      1.2103217389      0.4876032923    
  H      1.3765097817      0.5895393909     -1.1599523465    
  H      2.5289948385     -0.8556392499      1.2755301852    
  H      3.4798142177     -0.0384294598      0.0289792786    
  H      2.5381521292     -1.4791441643     -0.3755641184    
14
 Energy =        -307.7043257299 Eh        #Cluster:     3
  C     -2.1235485719     -0.6816190336      0.3386605824    
  C     -0.9767018316      0.1153392913     -0.1795740907    
  H     -3.0490976282     -0.1309114883      0.1973486059    
  H     -1.9873014130     -0.9280971881      1.3878079330    
  H     -2.1809122586     -1.6157434787     -0.2187311499    
  O     -1.0570807278      1.0666616375     -0.9084435096    
  O      0.1799020444     -0.3978723037      0.2691917828    
  C      1.3692697749      0.2542155223     -0.1866486358    
  C      2.5364645145     -0.4600287449      0.4402972595    
  H      1.3397942354      1.3044676354      0.1031804153    
  H      1.4112357920      0.2111948290     -1.2752497910    
  H      2.5406525598     -1.5064238101      0.1471391140    
  H      2.4763052672     -0.4039083153      1.5239048619    
  H      3.4685455909     -0.0015579312      0.1166675893    
