14
 Energy =        -20.7997251546 Eh        #Cluster:     1
  C     -2.1440962086     -0.6006175856      0.3314173960    
  C     -0.8799586268      0.1217357401     -0.0366573974    
  H     -2.0833081208     -1.6405136803      0.0279620281    
  H     -2.9935538560     -0.1068262587     -0.1320722228    
  H     -2.2689676477     -0.5472189587      1.4116164372    
  O     -0.7676391124      1.3256115979     -0.1139411038    
  O      0.1152370166     -0.7306546220     -0.2714067065    
  C      1.4089383176     -0.1992974162     -0.5950769990    
  C      2.2248825158      0.0681607382      0.6609739243    
  H      1.2752806323      0.7221158074     -1.1709158890    
  H      1.8778518153     -0.9657264956     -1.2147954150    
  H      1.7462509688      0.8398267299      1.2602364136    
  H      3.2178233607      0.4063456654      0.3801016676    
  H      2.3098801106     -0.8392632114      1.2539184078    
14
 Energy =        -20.7993248145 Eh        #Cluster:     2
  C     -2.1413301322     -0.7390403386      0.2380320743    
  C     -0.9790496600      0.1639562021     -0.0592819698    
  H     -2.9230185275     -0.1734608696      0.7375443232    
  H     -1.8171958343     -1.5774430101      0.8455715830    
  H     -2.5413238293     -1.1085376111     -0.7045735643    
  O     -1.0673954095      1.3046413574     -0.4603420247    
  O      0.1831267056     -0.4427137799      0.1599334647    
  C      1.3839565703      0.2981880251     -0.1078163105    
  C      2.5731697300     -0.5802314685      0.2309702040    
  H      1.3699660566      1.2121031149      0.4962434668    
  H      1.3840241897      0.5896107143     -1.1639508542    
  H      2.5437807725     -0.8610404587      1.2802115225    
  H      3.4908335664     -0.0350520053      0.0323572949    
  H      2.5550928909     -1.4829648328     -0.3735197423    
14
 Energy =        -20.7992132654 Eh        #Cluster:     3
  C     -2.1325439778     -0.6933512964      0.3354064925    
  C     -0.9649604362      0.1620027703     -0.0662196347    
  H     -3.0320710293     -0.0875147810      0.3778467440    
  H     -1.9341348705     -1.1482453085      1.3022343080    
  H     -2.2565356827     -1.4905070274     -0.3938914512    
  O     -1.0353302278      1.3288359501     -0.3858216670    
  O      0.1715085011     -0.5274600423     -0.0289771983    
  C      1.3981704251      0.1356860368     -0.3730147886    
  C      2.5137502635     -0.4026243906      0.5054163975    
  H      1.2612924783      1.2139551800     -0.2402173659    
  H      1.5981477316     -0.0666666986     -1.4304904496    
  H      2.6043061560     -1.4775668319      0.3749929150    
  H      2.3060625615     -0.1926312805      1.5515168392    
  H      3.4498654550      0.0718043419      0.2267698261    
