14
 Energy =        -307.7038925447 Eh        #Cluster:     1
  C     -2.1110870876     -0.5829764635      0.3276539645    
  C     -0.8509639421      0.1124753485     -0.0573281946    
  H     -2.2408585904     -1.5059422264     -0.2300981981    
  H     -2.9587318202      0.0787566337      0.1715656688    
  H     -2.0562837031     -0.8353764035      1.3864916394    
  O     -0.7130286151      1.3031720746     -0.1470215311    
  O      0.1225012540     -0.7858468354     -0.2720070177    
  C      1.4136399529     -0.2537491671     -0.5918279297    
  C      2.1628050586      0.1189404530      0.6629846766    
  H      1.2986680408      0.6111899567     -1.2415360472    
  H      1.9235014179     -1.0463098827     -1.1364757907    
  H      1.6374949717      0.9132384770      1.1855652750    
  H      3.1622847006      0.4684903658      0.4117332969    
  H      2.2486795273     -0.7423842802      1.3216607291    
14
 Energy =        -307.7032831107 Eh        #Cluster:     2
  C     -2.1191528568     -0.7342429790      0.2389547496    
  C     -0.9693904820      0.1678702528     -0.0501966508    
  H     -2.9123986937     -0.1674959705      0.7209115587    
  H     -1.8302479782     -1.5791944374      0.8547145052    
  H     -2.5060800426     -1.1065363930     -0.7094976010    
  O     -1.0619996744      1.2986107366     -0.4476985083    
  O      0.1937809160     -0.4621088228      0.1711859253    
  C      1.3739590709      0.2972258059     -0.1089102171    
  C      2.5546162050     -0.5737576309      0.2258475825    
  H      1.3663563020      1.2093552185      0.4879742211    
  H      1.3753376737      0.5887144489     -1.1595903889    
  H      2.5304458903     -0.8551326542      1.2754960712    
  H      3.4798154126     -0.0365506080      0.0282156093    
  H      2.5395953463     -1.4787419275     -0.3760273895    
14
 Energy =        -307.7034684254 Eh        #Cluster:     3
  C     -2.1241234667     -0.6813822339      0.3379823901    
  C     -0.9761958733      0.1148675991     -0.1781056574    
  H     -3.0492625550     -0.1300680969      0.1947128054    
  H     -1.9894425993     -0.9271737738      1.3877558819    
  H     -2.1805210421     -1.6159031194     -0.2192849321    
  O     -1.0553050883      1.0680771565     -0.9046540642    
  O      0.1797579341     -0.4007211191      0.2691043953    
  C      1.3685216176      0.2529363868     -0.1865975735    
  C      2.5371432262     -0.4594292325      0.4399717591    
  H      1.3378286981      1.3031556209      0.1032638043    
  H      1.4106498783      0.2101694985     -1.2752200515    
  H      2.5423089246     -1.5063291565      0.1475918766    
  H      2.4776912223     -0.4024980614      1.5238356793    
  H      3.4684764713      0.0000151534      0.1151946536    
