73
 Energy =        -86.492648383719 Eh        #Cluster:     1
  C     -4.9555629812      0.2044655862     -0.5135868316    
  C     -6.4018965640     -0.1665613808     -0.7058193730    
  C     -7.3075684537      0.7746896765      0.1022387604    
  H     -6.5783915452     -1.1975564175     -0.3926841826    
  H     -6.6676384039     -0.0754423294     -1.7623432356    
  C     -4.6632228272      1.6141839637     -0.8229254968    
  C     -5.5574950174      2.5951759440     -0.1121284354    
  C     -7.0327966956      2.2302023427     -0.2946770970    
  H     -5.3780467108      3.6057302010     -0.4825343978    
  H     -5.3140453349      2.5849463320      0.9556946144    
  H     -7.3166689873      2.3610445269     -1.3403297771    
  H     -7.6535651885      2.8898381699      0.3151342893    
  O     -7.1536130905      0.5612876671      1.4945367103    
  H     -8.3596680408      0.5365986783     -0.0940269404    
  C     -4.0544649960     -0.6800769366     -0.0571061029    
  C     -3.7220584255      1.9896633469     -1.6793242310    
  H     -3.1068717052      1.2714524547     -2.1940020403    
  H     -3.5407068338      3.0285084973     -1.9020131650    
  C     -2.6757696413     -0.3841484380      0.2401220405    
  H     -4.3978170915     -1.6875639521      0.1382630663    
  C     -1.7314713607     -1.2585625297      0.6108585382    
  H     -2.4100175421      0.6612277586      0.1664785486    
  C     -1.9170029852     -2.7441603672      0.7549637107    
  C     -0.9091294299     -3.5142091435     -0.1074206624    
  H     -2.9248215217     -3.0538429269      0.4829426965    
  H     -1.7565604370     -3.0113066642      1.8048677270    
  C      0.5324767030     -3.0701394514      0.1463218408    
  H     -1.1571658318     -3.3704535208     -1.1602308552    
  H     -0.9991733418     -4.5818613913      0.1074074206    
  C      0.6840241473     -1.5568184786     -0.0304934634    
  H      1.1892858022     -3.6122299315     -0.5338969485    
  H      0.8161827497     -3.3410708075      1.1670086640    
  C     -0.3203447097     -0.8740098473      0.9331510755    
  H     -0.1049507632     -1.2707003128      1.9348808705    
  C      0.1165208795      0.5862259141      0.9247531061    
  H     -6.2082943047      0.6129623180      1.6939444168    
  C      1.6515990800      0.4964388741      0.8706934825    
  H     -0.2336177770      1.1211748343      1.8072873702    
  H     -0.2682017837      1.1003997073      0.0452852514    
  C      2.0138969358     -0.9607868952      0.4875822995    
  H      2.0927891544      0.7532937612      1.8335344076    
  H      2.0563370526      1.1927290490      0.1364815434    
  H      2.2809702141     -1.5068785024      1.3996419772    
  C      3.2434034180     -0.9936794112     -0.4363309181    
  C      0.4150006026     -1.1499346525     -1.4807389378    
  H      0.7092382694     -0.1199058981     -1.6566546010    
  H     -0.6436577232     -1.2386753484     -1.7117491633    
  H      0.9719211916     -1.7857594998     -2.1652067709    
  H      3.0151158790     -0.4692188686     -1.3681468356    
  C      3.7069033314     -2.4143962708     -0.7728172688    
  C      4.3772004724     -0.2832519270      0.2486090942    
  C      5.0318052017      0.7560732931     -0.2405376220    
  H      4.6690457153     -0.7012536657      1.2042225131    
  H      4.7456672063      1.1753854573     -1.1978719638    
  C      6.1692428512      1.4565002585      0.4448395921    
  C      5.7352034580      2.8912499381      0.7644857343    
  C      7.4338364777      1.4148342738     -0.4376730677    
  H      6.3869795273      0.9382704422      1.3851573656    
  H      7.2154850206      1.9436595222     -1.3729891011    
  C      7.7945473057     -0.0323258702     -0.7738804889    
  C      8.6243390212      2.0938850894      0.2378336282    
  H      5.6104572729      3.4638986261     -0.1525372646    
  H      6.4659714674      3.3923135475      1.3929557956    
  H      4.7844124343      2.8792274854      1.2937586408    
  H      6.9736874419     -0.5235827579     -1.2904190964    
  H      8.0077129936     -0.5894136106      0.1363353679    
  H      8.6749298974     -0.0668986373     -1.4123485827    
  H      8.4562821720      3.1599844711      0.3624154053    
  H      9.5192362858      1.9641268165     -0.3676858938    
  H      8.8075053766      1.6530161108      1.2159439162    
  H      3.0029921446     -2.9126273848     -1.4322004505    
  H      3.8191374192     -3.0060209402      0.1330066555    
  H      4.6706274324     -2.3751520680     -1.2777456038    
73
 Energy =        -86.48919480124 Eh        #Cluster:     2
  C     -5.0979654212      0.1301163510     -0.6537142570    
  C     -6.5280668975     -0.2995676394     -0.8442830664    
  C     -7.4687162390      0.6435241365     -0.0791177986    
  H     -6.6718141001     -1.3226908854     -0.4914435098    
  H     -6.7883610833     -0.2585139636     -1.9051271651    
  C     -4.8522566153      1.5315659660     -1.0342409260    
  C     -5.7856997076      2.5148034449     -0.3784045168    
  C     -7.2463041295      2.0876867271     -0.5450083528    
  H     -5.6412694462      3.5105665816     -0.8005924060    
  H     -5.5467199450      2.5691410748      0.6891538723    
  H     -7.5317470116      2.1574645723     -1.5960101805    
  H     -7.8924992536      2.7529118018      0.0313824324    
  O     -7.3061921942      0.5014928969      1.3209334502    
  H     -8.5113409055      0.3581164571     -0.2620774215    
  C     -4.1772875472     -0.6948441809     -0.1299093346    
  C     -3.9196383928      1.8972469096     -1.9039267211    
  H     -3.2732735552      1.1777566426     -2.3772202129    
  H     -3.7748145374      2.9296871108     -2.1776359784    
  C     -2.8157955742     -0.3337113974      0.1733186455    
  H     -4.4901432593     -1.7008192957      0.1171174897    
  C     -1.8581678124     -1.1428431274      0.6446775893    
  H     -2.5778171683      0.7086147393      0.0141812555    
  C     -2.0062099329     -2.6128430345      0.9262278911    
  C     -0.9530186437     -3.4318016558      0.1693896074    
  H     -2.9971786559     -2.9779838322      0.6608852459    
  H     -1.8683410218     -2.7726178203      2.0009403429    
  C      0.4679803181     -2.9188901931      0.4105924611    
  H     -1.1771784358     -3.4022623467     -0.8981002774    
  H     -1.0170820460     -4.4750771937      0.4882427974    
  C      0.5796626021     -1.4259158988      0.0881201392    
  H      1.1578237243     -3.5049872868     -0.1962711149    
  H      0.7329077111     -3.0784835938      1.4593958029    
  C     -0.4670510407     -0.6864894060      0.9602639882    
  H     -0.2648843378     -0.9781369243      2.0000260092    
  C     -0.0739131886      0.7788695579      0.8190038576    
  H     -6.3634091548      0.5985791939      1.5153717093    
  C      1.4635383113      0.7323467266      0.8139350774    
  H     -0.4635237515      1.3863454656      1.6356712663    
  H     -0.4488958046      1.1923336485     -0.1160086158    
  C      1.8819055568     -0.7403482808      0.5709945818    
  H      1.8629151185      1.0881547135      1.7626381813    
  H      1.8693536806      1.3748811258      0.0320201949    
  H      2.1451208002     -1.1987108020      1.5294378698    
  C      3.1150705555     -0.8207622337     -0.3398927967    
  C      0.3240949207     -1.1723432396     -1.3993891630    
  H      0.5845194582     -0.1541447068     -1.6718985323    
  H     -0.7266978184     -1.3206791943     -1.6358678952    
  H      0.9133913650     -1.8518928037     -2.0108062858    
  H      2.8535564814     -0.4081648438     -1.3191315463    
  C      3.6216028473     -2.2541498094     -0.5499020719    
  C      4.2820094663     -0.0203170297      0.1876830552    
  C      4.6023331445      0.1960501043      1.4521206051    
  H      4.9512054536      0.3431441838     -0.5844611139    
  H      3.9734235321     -0.1632629676      2.2548077270    
  C      5.8452012314      0.9048596649      1.9093682476    
  C      6.6678242383     -0.0758764513      2.7527013269    
  C      5.4799269698      2.1842588425      2.6901488229    
  H      6.4349805141      1.1933625671      1.0323417955    
  H      4.8197503835      1.9014024756      3.5187342738    
  C      4.7275366496      3.1556935051      1.7807494729    
  C      6.7119792993      2.8788629899      3.2689735471    
  H      6.1628920393     -0.2837418353      3.6941220195    
  H      7.6564980221      0.3205759290      2.9653853784    
  H      6.7872330124     -1.0136252895      2.2130619396    
  H      3.8553884646      2.6767278402      1.3434424730    
  H      5.3743686903      3.4922786454      0.9726892815    
  H      4.3991453371      4.0276855188      2.3427310690    
  H      7.1794768925      2.2789912220      4.0448196364    
  H      6.4267022327      3.8326659996      3.7086857712    
  H      7.4437170045      3.0696815367      2.4861434930    
  H      2.9342957324     -2.8323943921     -1.1597271398    
  H      3.7516170473     -2.7526824679      0.4079021621    
  H      4.5849982104     -2.2338575458     -1.0569139660    
