73
 Energy =        -86.490893182511 Eh        #Cluster:     1
  C     -4.9599444913      0.2042896784     -0.5083440172    
  C     -6.4069614591     -0.1699354981     -0.6894515125    
  C     -7.3100097981      0.7764682105      0.1159729515    
  H     -6.5804180911     -1.1987198376     -0.3673390250    
  H     -6.6789536905     -0.0876881801     -1.7451421106    
  C     -4.6705601585      1.6119055231     -0.8288396777    
  C     -5.5649322742      2.5979824282     -0.1250282414    
  C     -7.0402880273      2.2285261320     -0.2972954935    
  H     -5.3890572876      3.6050902938     -0.5063751629    
  H     -5.3172855236      2.5995239143      0.9419518893    
  H     -7.3294565561      2.3480105497     -1.3427963447    
  H     -7.6596395510      2.8932192446      0.3085513856    
  O     -7.1490760908      0.5765003070      1.5089961927    
  H     -8.3627177765      0.5341551252     -0.0725608083    
  C     -4.0556615454     -0.6772137203     -0.0521919385    
  C     -3.7300865473      1.9822758711     -1.6882599697    
  H     -3.1138151211      1.2610544605     -2.1974356863    
  H     -3.5503413228      3.0196514323     -1.9189286047    
  C     -2.6754690500     -0.3807477621      0.2372176185    
  H     -4.3982812000     -1.6834256575      0.1514008806    
  C     -1.7305230311     -1.2545707008      0.6078370377    
  H     -2.4092729684      0.6642879077      0.1589273498    
  C     -1.9163734910     -2.7398682924      0.7549956817    
  C     -0.9102153073     -3.5120626815     -0.1073579381    
  H     -2.9246668430     -3.0497608419      0.4849588703    
  H     -1.7545007676     -3.0054054873      1.8051319401    
  C      0.5318830101     -3.0687575083      0.1444717036    
  H     -1.1592823940     -3.3695935641     -1.1601523938    
  H     -1.0009309527     -4.5793602225      0.1090278720    
  C      0.6847358051     -1.5559817598     -0.0352399739    
  H      1.1880157266     -3.6128086666     -0.5348176304    
  H      0.8159409818     -3.3379975743      1.1655485169    
  C     -0.3186368234     -0.8705165158      0.9274080557    
  H     -0.1028914300     -1.2655686439      1.9298847196    
  C      0.1198378141      0.5891871734      0.9167014309    
  H     -6.2035299133      0.6372336290      1.7039565752    
  C      1.6547623409      0.4976781169      0.8620682075    
  H     -0.2292723145      1.1260900727      1.7985180213    
  H     -0.2647002631      1.1025266153      0.0366652934    
  C      2.0151815495     -0.9606803188      0.4818766150    
  H      2.0969445978      0.7563941654      1.8240315430    
  H      2.0600305635      1.1919847985      0.1261494601    
  H      2.2810558466     -1.5053133494      1.3952658171    
  C      3.2453381842     -0.9968557798     -0.4409150892    
  C      0.4161772177     -1.1513566563     -1.4861592631    
  H      0.7116997068     -0.1219487048     -1.6640199609    
  H     -0.6426623019     -1.2391261965     -1.7170817045    
  H      0.9721959447     -1.7890097697     -2.1697401840    
  H      3.0193321921     -0.4713884078     -1.3728623102    
  C      3.7056993604     -2.4185133520     -0.7774698759    
  C      4.3796081903     -0.2892548048      0.2460031501    
  C      5.0383177631      0.7482865183     -0.2412515400    
  H      4.6676958143     -0.7074504107      1.2027544271    
  H      4.7561996025      1.1682593571     -1.1995549023    
  C      6.1733437092      1.4476071508      0.4491942846    
  C      5.7325295571      2.8776915604      0.7803646735    
  C      7.4382272698      1.4186508876     -0.4330043165    
  H      6.3930953204      0.9228308375      1.3855081713    
  H      7.2171280637      1.9520576099     -1.3651869087    
  C      7.8068312787     -0.0243668038     -0.7781324030    
  C      8.6245583106      2.1003542210      0.2470598594    
  H      5.6092725547      3.4583651279     -0.1318078344    
  H      6.4587492310      3.3757302320      1.4164676220    
  H      4.7794701284      2.8566994227      1.3053099042    
  H      6.9868167303     -0.5179983956     -1.2939167296    
  H      8.0270974482     -0.5848563599      0.1283377025    
  H      8.6849072364     -0.0501865220     -1.4201953163    
  H      8.4501239691      3.1646775795      0.3779309017    
  H      9.5204657776      1.9793177504     -0.3587965694    
  H      8.8098151632      1.6547987983      1.2226906817    
  H      3.0016929385     -2.9145332805     -1.4384623086    
  H      3.8148706856     -3.0109985219      0.1281873084    
  H      4.6704587389     -2.3813540537     -1.2806492998    
73
 Energy =        -86.487488926149 Eh        #Cluster:     2
  C     -5.0960148410      0.1360650474     -0.6600943482    
  C     -6.5260211782     -0.2946093365     -0.8497430293    
  C     -7.4655738459      0.6401560385     -0.0724582172    
  H     -6.6668665444     -1.3211140121     -0.5055043344    
  H     -6.7904980027     -0.2446625028     -1.9091733590    
  C     -4.8549814075      1.5406276276     -1.0321437186    
  C     -5.7880238685      2.5175037824     -0.3660258037    
  C     -7.2484047729      2.0883053967     -0.5289823999    
  H     -5.6479128657      3.5160302466     -0.7830829641    
  H     -5.5447681387      2.5666831586      0.7008514207    
  H     -7.5389782273      2.1650517972     -1.5780826262    
  H     -7.8935010043      2.7480130867      0.0550807932    
  O     -7.2979515934      0.4874642100      1.3253835895    
  H     -8.5083858468      0.3538181606     -0.2537086349    
  C     -4.1737557640     -0.6912594047     -0.1428159258    
  C     -3.9279312772      1.9151996358     -1.9038895813    
  H     -3.2817242622      1.2014143151     -2.3858815990    
  H     -3.7869855856      2.9501028959     -2.1703197378    
  C     -2.8120934143     -0.3322680921      0.1619891310    
  H     -4.4859921153     -1.6988929599      0.0984426121    
  C     -1.8570844652     -1.1423465919      0.6370505214    
  H     -2.5720858233      0.7095308923      0.0017464854    
  C     -2.0079729699     -2.6116600939      0.9203301241    
  C     -0.9548980926     -3.4329976118      0.1659797161    
  H     -2.9991957040     -2.9758234637      0.6543887687    
  H     -1.8718538071     -2.7704749308      1.9954649783    
  C      0.4666791488     -2.9225674729      0.4092632333    
  H     -1.1771146719     -3.4037871816     -0.9019752329    
  H     -1.0214986085     -4.4759310898      0.4854078554    
  C      0.5815052841     -1.4299403495      0.0862185273    
  H      1.1561982974     -3.5104299852     -0.1963905741    
  H      0.7298247365     -3.0824536171      1.4585318544    
  C     -0.4658982546     -0.6882792046      0.9555968119    
  H     -0.2666150836     -0.9797702996      1.9960992676    
  C     -0.0702549876      0.7763754228      0.8146706090    
  H     -6.3552961635      0.5887490052      1.5175229667    
  C      1.4670053430      0.7279200262      0.8105331572    
  H     -0.4596375887      1.3846756810      1.6309104661    
  H     -0.4437761958      1.1902707880     -0.1206971729    
  C      1.8837108228     -0.7456508890      0.5709807539    
  H      1.8665612971      1.0857500083      1.7584089317    
  H      1.8738899474      1.3681210521      0.0271708491    
  H      2.1442024850     -1.2028561095      1.5308717508    
  C      3.1190345660     -0.8289213655     -0.3366794170    
  C      0.3292161503     -1.1771270317     -1.4019262602    
  H      0.5922124354     -0.1596612231     -1.6749024229    
  H     -0.7215057313     -1.3234791494     -1.6402748296    
  H      0.9182030149     -1.8584351977     -2.0117030096    
  H      2.8597207490     -0.4203211741     -1.3182569400    
  C      3.6267922284     -2.2627327773     -0.5395118614    
  C      4.2843813563     -0.0260471697      0.1906638967    
  C      4.6029515092      0.1922842318      1.4552278898    
  H      4.9535132880      0.3383779529     -0.5811705502    
  H      3.9726064608     -0.1657877218      2.2575257555    
  C      5.8434452499      0.9048766287      1.9131433660    
  C      6.6654222297     -0.0703080817      2.7632726342    
  C      5.4747209067      2.1878100606      2.6865216550    
  H      6.4352843641      1.1902111106      1.0363069522    
  H      4.8119085622      1.9086501715      3.5142974569    
  C      4.7249172883      3.1539995128      1.7695974000    
  C      6.7043567963      2.8862500310      3.2658299439    
  H      6.1568510596     -0.2773142779      3.7029057433    
  H      7.6515256966      0.3304495060      2.9797204162    
  H      6.7910257455     -1.0091959313      2.2270756950    
  H      3.8526765233      2.6732476363      1.3343538058    
  H      5.3737117165      3.4840306699      0.9603980661    
  H      4.3969556509      4.0304108657      2.3249156287    
  H      7.1673225231      2.2928507926      4.0493333947    
  H      6.4179369466      3.8442149756      3.6956576479    
  H      7.4401357089      3.0694798180      2.4850569085    
  H      2.9405753240     -2.8442118511     -1.1474593470    
  H      3.7558601960     -2.7564942228      0.4208871752    
  H      4.5908834850     -2.2441465643     -1.0452812192    
