14
 Energy =        -307.6501747814 Eh        #Cluster:     1
  C     -2.1432922131     -0.5916020241      0.3287907678    
  C     -0.8688399581      0.1028409836     -0.0553416786    
  H     -2.2465602655     -1.5505425677     -0.1828963689    
  H     -2.9932813314      0.0568844714      0.1131494803    
  H     -2.1174450621     -0.7848541587      1.4074643855    
  O     -0.7279867852      1.3074513323     -0.1266795343    
  O      0.1188915178     -0.7838297578     -0.2926418392    
  C      1.4352655468     -0.2356662667     -0.6004054085    
  C      2.1856794459      0.1169330994      0.6665102551    
  H      1.3116811221      0.6323587460     -1.2543903017    
  H      1.9338994411     -1.0372669576     -1.1509471807    
  H      1.6794778899      0.9170777108      1.2136515725    
  H      3.1923123336      0.4612819427      0.4071397232    
  H      2.2788194835     -0.7573885031      1.3179566687    
14
 Energy =        -307.6506585170 Eh        #Cluster:     2
  C     -2.1524828459     -0.7336347294      0.2392178040    
  C     -0.9835194120      0.1727401614     -0.0177335423    
  H     -3.0241823836     -0.1376405508      0.5125160518    
  H     -1.9271380941     -1.4696905131      1.0132826026    
  H     -2.3788427299     -1.2730280029     -0.6877728110    
  O     -1.0655830745      1.3272114350     -0.3883546539    
  O      0.1873041877     -0.4604135312      0.1850196489    
  C      1.3934108191      0.3112360441     -0.0913062653    
  C      2.5737795752     -0.5868823012      0.1917751293    
  H      1.3909693227      1.2004175948      0.5482561204    
  H      1.3654769499      0.6377893783     -1.1364386039    
  H      2.5789411658     -0.9099699663      1.2370997343    
  H      3.5000350812     -0.0377287451     -0.0034938618    
  H      2.5564685275     -1.4723912342     -0.4506878854    
14
 Energy =        -307.6506313625 Eh        #Cluster:     3
  C     -2.1583081534     -0.6836352575      0.3346989386    
  C     -0.9879614908      0.1104997325     -0.1692447235    
  H     -3.0880946068     -0.1950399924      0.0442286190    
  H     -2.1067406618     -0.7828903781      1.4228419453    
  H     -2.1235965452     -1.6926724285     -0.0888990793    
  O     -1.0588940671      1.0928935797     -0.8810075281    
  O      0.1761660550     -0.4099959252      0.2631379234    
  C      1.3893299464      0.2690417105     -0.1760712441    
  C      2.5595707206     -0.4774398013      0.4183869986    
  H      1.3484278181      1.3089402235      0.1653621307    
  H      1.4126341911      0.2658394746     -1.2711909656    
  H      2.5785998477     -1.5155601159      0.0733055709    
  H      2.5150764688     -0.4700527599      1.5116060892    
  H      3.4913178251      0.0057885598      0.1083962920    
