14
 Energy =        -307.650174574438 Eh        #Cluster:     1
  C     -2.1433802030     -0.5912801528      0.3285510024    
  C     -0.8689193539      0.1026627529     -0.0563675786    
  H     -2.2532070776     -1.5439928843     -0.1934538147    
  H     -2.9924381200      0.0624712260      0.1259365022    
  H     -2.1107077247     -0.7979648253      1.4045474828    
  O     -0.7280018174      1.3070156778     -0.1308120111    
  O      0.1190360845     -0.7847410218     -0.2906853928    
  C      1.4354874358     -0.2374067154     -0.5993824358    
  C      2.1851858141      0.1189793907      0.6669157977    
  H      1.3122944710      0.6287178658     -1.2559401743    
  H      1.9345627359     -1.0405327646     -1.1473142610    
  H      1.6790037703      0.9211247169      1.2111217408    
  H      3.1921591537      0.4619168489      0.4070373245    
  H      2.2775459965     -0.7532920642      1.3212063592    
14
 Energy =        -307.650658462376 Eh        #Cluster:     2
  C     -2.1525230178     -0.7336166216      0.2392523223    
  C     -0.9835872364      0.1726066712     -0.0180811141    
  H     -3.0233670296     -0.1375424600      0.5150924133    
  H     -1.9263494392     -1.4711499946      1.0116225314    
  H     -2.3807567712     -1.2710917798     -0.6883651059    
  O     -1.0654703690      1.3269557070     -0.3888418423    
  O      0.1873420081     -0.4606438054      0.1847919112    
  C      1.3933138627      0.3109675179     -0.0915797545    
  C      2.5738945422     -0.5867294555      0.1922028179    
  H      1.3906927940      1.2005330236      0.5474497976    
  H      1.3656889994      0.6369938601     -1.1368954839    
  H      2.5787565521     -0.9094330616      1.2376305378    
  H      3.5000061559     -0.0373570080     -0.0029899692    
  H      2.5569960380     -1.4724775539     -0.4499095939    
14
 Energy =        -307.650631360055 Eh        #Cluster:     3
  C     -2.1583105708     -0.6836360040      0.3346988183    
  C     -0.9879684700      0.1104958068     -0.1692390465    
  H     -3.0880931353     -0.1950189601      0.0442578850    
  H     -2.1067234134     -0.7829263927      1.4228359587    
  H     -2.1236162827     -1.6926573337     -0.0889346948    
  O     -1.0589027334      1.0928996706     -0.8809897175    
  O      0.1761657899     -0.4100012416      0.2631249066    
  C      1.3893373570      0.2690391090     -0.1760830259    
  C      2.5595709448     -0.4774331297      0.4183928510    
  H      1.3484217467      1.3089381223      0.1653442921    
  H      1.4126444704      0.2658209853     -1.2712016496    
  H      2.5786077166     -1.5155587783      0.0733265015    
  H      2.5150721346     -0.4700345983      1.5116121375    
  H      3.4913217933      0.0057893661      0.1084057508    
