14
 Energy =        -307.6501747817 Eh        #Cluster:     1
  C     -2.1432921864     -0.5916020346      0.3287907849    
  C     -0.8688399341      0.1028409587     -0.0553417067    
  H     -2.2465603356     -1.5505425417     -0.1828963991    
  H     -2.9932812886      0.0568845253      0.1131496384    
  H     -2.1174449401     -0.7848542504      1.4074643875    
  O     -0.7279867413      1.3074513070     -0.1266795217    
  O      0.1188915290     -0.7838297843     -0.2926419368    
  C      1.4352655640     -0.2356662622     -0.6004054494    
  C      2.1856793775      0.1169331196      0.6665102629    
  H      1.3116811578      0.6323587477     -1.2543903474    
  H      1.9338995181     -1.0372669402     -1.1509471971    
  H      1.6794778199      0.9170777713      1.2136515190    
  H      3.1923123054      0.4612819020      0.4071398007    
  H      2.2788193199     -0.7573884679      1.3179567061    
14
 Energy =        -307.6506585171 Eh        #Cluster:     2
  C     -2.1524828058     -0.7336346752      0.2392177910    
  C     -0.9835194330      0.1727403716     -0.0177332526    
  H     -3.0241833590     -0.1376404812      0.5125126896    
  H     -1.9271391091     -1.4696883677      1.0132849074    
  H     -2.3788401732     -1.2730305990     -0.6877719007    
  O     -1.0655830569      1.3272117074     -0.3883541650    
  O      0.1873041460     -0.4604133504      0.1850199485    
  C      1.3934107805      0.3112362293     -0.0913058432    
  C      2.5737794673     -0.5868825193      0.1917745532    
  H      1.3909696462      1.2004173311      0.5482571736    
  H      1.3654766319      0.6377903047     -1.1364379415    
  H      2.5789412742     -0.9099709787      1.2370989107    
  H      3.5000350126     -0.0377289723     -0.0034942786    
  H      2.5564680674     -1.4723909610     -0.4506891251    
14
 Energy =        -307.6506313626 Eh        #Cluster:     3
  C     -2.1583081477     -0.6836352675      0.3346989256    
  C     -0.9879615181      0.1104997529     -0.1692447524    
  H     -3.0880946322     -0.1950400308      0.0442286443    
  H     -2.1067405953     -0.7828903887      1.4228419271    
  H     -2.1235965109     -1.6926724355     -0.0888990951    
  O     -1.0588941197      1.0928935618     -0.8810076063    
  O      0.1761660337     -0.4099958565      0.2631379583    
  C      1.3893299421      0.2690417431     -0.1760712124    
  C      2.5595707194     -0.4774398189      0.4183870083    
  H      1.3484278714      1.3089402596      0.1653621509    
  H      1.4126341764      0.2658395107     -1.2711909358    
  H      2.5785998022     -1.5155601289      0.0733055683    
  H      2.5150764975     -0.4700527958      1.5116061035    
  H      3.4913178291      0.0057885163      0.1083962828    
