17
 Energy =        -309.820981116391 Eh        #Cluster:     1
  C      1.8513508441     -0.0000074443     -0.0716885123    
  C      1.0664971531     -1.2573647392      0.2997253448    
  C     -0.3132995374     -1.2764734014     -0.3851807781    
  H      0.9258698128     -1.2903668661      1.3887649409    
  H      1.6204112057     -2.1608722886      0.0206757367    
  C     -1.0783091825     -0.0000192180     -0.1235684754    
  H     -0.9185516757     -2.1313041095     -0.0690038838    
  H     -0.1635529482     -1.3447980729     -1.4736185877    
  C     -0.3133357279      1.2764740713     -0.3851005125    
  C      1.0665137025      1.2573644099      0.2997011777    
  H     -0.9185930542      2.1312358835     -0.0687392247    
  H     -0.1637022152      1.3450068951     -1.4735383302    
  H      0.9259563860      1.2904524119      1.3887469957    
  H      1.6204053894      2.1608659743      0.0205834884    
  H      2.0547527469     -0.0000194900     -1.1522596792    
  H      2.8222284407      0.0000001704      0.4381698483    
  O     -2.2343310158     -0.0000367944      0.2706891982    
17
 Energy =        -309.815917337892 Eh        #Cluster:     2
  C      1.9258288717      0.0002046513      0.0012223570    
  C      1.0662900794     -1.2257754017     -0.3690986098    
  C     -0.2798984785     -1.2223094916      0.3630629334    
  H      1.6075856469     -2.1519551568     -0.1502435064    
  H      0.8694620670     -1.2298824983     -1.4485204465    
  C     -1.0928542519      0.0000742600     -0.0014922507    
  H     -0.1164376156     -1.1836899748      1.4518205930    
  H     -0.8748019522     -2.1188955756      0.1618059471    
  C     -0.2789458633      1.2228446012     -0.3627225535    
  C      1.0656388222      1.2253228780      0.3722640316    
  H     -0.8742774203      2.1192496752     -0.1618783724    
  H     -0.1131826019      1.1853478026     -1.4511855632    
  H      0.8666587273      1.2273122241      1.4513057536    
  H      1.6074204384      2.1518991908      0.1562808712    
  H      2.5803386996      0.2456444844     -0.8430165090    
  H      2.5816450647     -0.2444802812      0.8446537338    
  O     -2.3135203744     -0.0002652176     -0.0043517922    
17
 Energy =        -309.815154391997 Eh        #Cluster:     3
  C      1.7070377430      0.0281944486     -0.4995871963    
  C      1.0940289628     -1.3173282840     -0.0621582021    
  C     -0.3039226909     -1.1566192074      0.5869371501    
  H      1.7502770206     -1.8127069799      0.6613945861    
  H      1.0129003038     -1.9860154383     -0.9253547098    
  C     -1.0683935063      0.0166628302      0.0345174825    
  H     -0.1722531037     -0.9407092024      1.6581044475    
  H     -0.9029006989     -2.0669456619      0.5013158847    
  C     -0.3310566697      1.3418252694      0.0710860116    
  C      1.1683542084      1.1835732560      0.3456711325    
  H     -0.8241383767      1.9621525308      0.8329506174    
  H     -0.5051077268      1.8402930091     -0.8910367858    
  H      1.3449068194      0.9840581264      1.4108994761    
  H      1.6889715871      2.1179047137      0.1093110767    
  H      1.4526490803      0.2275701046     -1.5498369561    
  H      2.7997742697     -0.0239821712     -0.4452477282    
  O     -2.2095535784     -0.0708834398     -0.3915602270    
