73
 Energy =        -1168.3616828200 Eh        #Cluster:     0
  C     -4.9970955600      0.2151337400     -0.4994928600    
  C     -6.4448492500     -0.1838003900     -0.6619555300    
  C     -7.3540414000      0.7603346300      0.1350759100    
  H     -6.6008698400     -1.2184816400     -0.3361250800    
  H     -6.7342648200     -0.1147645300     -1.7210794900    
  C     -4.7238973500      1.6309414100     -0.8317393400    
  C     -5.6547439200      2.6202012000     -0.1657949900    
  C     -7.1268698700      2.2074689000     -0.3051145900    
  H     -5.4959495400      3.6237627900     -0.5746624500    
  H     -5.4014204500      2.6660448500      0.9043253400    
  H     -7.4374041800      2.3018160400     -1.3546254900    
  H     -7.7625319600      2.8748051100      0.2883288900    
  O     -7.1430383300      0.5953810000      1.5472824700    
  H     -8.4031109300      0.4869088500     -0.0327242500    
  C     -4.0772516200     -0.6583761700     -0.0250680800    
  C     -3.7627750400      2.0106351300     -1.6808234700    
  H     -3.1153103500      1.2835236000     -2.1636767400    
  H     -3.6100863700      3.0606795500     -1.9189756700    
  C     -2.6936961000     -0.3628925300      0.2677947700    
  H     -4.4318995900     -1.6678537100      0.1797756900    
  C     -1.7432806500     -1.2495370200      0.6324500600    
  H     -2.4063349100      0.6832439100      0.1891654100    
  C     -1.9331742200     -2.7391576100      0.7642598800    
  C     -0.9259202000     -3.5166390500     -0.1057767000    
  H     -2.9511966100     -3.0527502800      0.5177221900    
  H     -1.7573360400     -3.0112407900      1.8171377800    
  C      0.5231174400     -3.0625083500      0.1173300700    
  H     -1.1957523100     -3.3921508300     -1.1621251000    
  H     -1.0131578200     -4.5878069900      0.1137968000    
  C      0.6813700100     -1.5461681200     -0.0598818500    
  H      1.1771646400     -3.6141505700     -0.5660944500    
  H      0.8320131600     -3.3267464000      1.1399705400    
  C     -0.3263467100     -0.8533960600      0.9133877800    
  H     -0.0768146900     -1.2659202900      1.9080531000    
  C      0.1010593600      0.6114888600      0.9122866200    
  H     -6.1892273200      0.5209515500      1.6935987800    
  C      1.6437218000      0.5402493100      0.8000005500    
  H     -0.2376311400      1.1395491400      1.8098153700    
  H     -0.3201419600      1.1392626200      0.0493589400    
  C      2.0122215700     -0.9350519700      0.4592789300    
  H      2.1365410400      0.8547408400      1.7252847700    
  H      2.0106273300      1.2095011100      0.0129905800    
  H      2.2529307200     -1.4625659700      1.3968637500    
  C      3.2648047400     -1.0110335500     -0.4372797700    
  C      0.4180836900     -1.1285237900     -1.5128486300    
  H      0.6359715000     -0.0676608600     -1.6722808300    
  H     -0.6264802400     -1.2930370400     -1.7948744900    
  H      1.0475702800     -1.7037256800     -2.2006510300    
  H      3.0545073000     -0.4671368800     -1.3699658600    
  C      3.6822884300     -2.4475341500     -0.7867348100    
  C      4.4138146500     -0.3222542500      0.2499079200    
  C      5.0835123000      0.7248840000     -0.2271487600    
  H      4.7138258700     -0.7502807300      1.2117855000    
  H      4.7821248700      1.1512038200     -1.1894985700    
  C      6.2268727400      1.4185439400      0.4591377400    
  C      5.7988949600      2.8489648500      0.8259760200    
  C      7.5003151800      1.3960336400     -0.4219597500    
  H      6.4559200400      0.8722626200      1.3882549900    
  H      7.2513101800      1.9068858300     -1.3663297200    
  C      7.9160284100     -0.0413847900     -0.7462482900    
  C      8.6675798700      2.1389814100      0.2340520700    
  H      5.6515874200      3.4506756100     -0.0797782300    
  H      6.5446106000      3.3500233300      1.4501638200    
  H      4.8531568600      2.8331094100      1.3775684200    
  H      7.1216310500     -0.5842984500     -1.2672499500    
  H      8.1445929600     -0.5889324600      0.1775450400    
  H      8.8124897600     -0.0548301000     -1.3758343000    
  H      8.4684899000      3.2079088400      0.3515575200    
  H      9.5747468200      2.0349683900     -0.3712884000    
  H      8.8783611700      1.7203562400      1.2267829400    
  H      2.9505276700     -2.9391767100     -1.4327658900    
  H      3.7951464400     -3.0515512000      0.1220123000    
  H      4.6440605200     -2.4439182600     -1.3110445700    
73
 Energy =        -1168.3616828200 Eh        #Cluster:     0
  C     -4.9970955600      0.2151337400     -0.4994928600    
  C     -6.4448492500     -0.1838003900     -0.6619555300    
  C     -7.3540414000      0.7603346300      0.1350759100    
  H     -6.6008698400     -1.2184816400     -0.3361250800    
  H     -6.7342648200     -0.1147645300     -1.7210794900    
  C     -4.7238973500      1.6309414100     -0.8317393400    
  C     -5.6547439200      2.6202012000     -0.1657949900    
  C     -7.1268698700      2.2074689000     -0.3051145900    
  H     -5.4959495400      3.6237627900     -0.5746624500    
  H     -5.4014204500      2.6660448500      0.9043253400    
  H     -7.4374041800      2.3018160400     -1.3546254900    
  H     -7.7625319600      2.8748051100      0.2883288900    
  O     -7.1430383300      0.5953810000      1.5472824700    
  H     -8.4031109300      0.4869088500     -0.0327242500    
  C     -4.0772516200     -0.6583761700     -0.0250680800    
  C     -3.7627750400      2.0106351300     -1.6808234700    
  H     -3.1153103500      1.2835236000     -2.1636767400    
  H     -3.6100863700      3.0606795500     -1.9189756700    
  C     -2.6936961000     -0.3628925300      0.2677947700    
  H     -4.4318995900     -1.6678537100      0.1797756900    
  C     -1.7432806500     -1.2495370200      0.6324500600    
  H     -2.4063349100      0.6832439100      0.1891654100    
  C     -1.9331742200     -2.7391576100      0.7642598800    
  C     -0.9259202000     -3.5166390500     -0.1057767000    
  H     -2.9511966100     -3.0527502800      0.5177221900    
  H     -1.7573360400     -3.0112407900      1.8171377800    
  C      0.5231174400     -3.0625083500      0.1173300700    
  H     -1.1957523100     -3.3921508300     -1.1621251000    
  H     -1.0131578200     -4.5878069900      0.1137968000    
  C      0.6813700100     -1.5461681200     -0.0598818500    
  H      1.1771646400     -3.6141505700     -0.5660944500    
  H      0.8320131600     -3.3267464000      1.1399705400    
  C     -0.3263467100     -0.8533960600      0.9133877800    
  H     -0.0768146900     -1.2659202900      1.9080531000    
  C      0.1010593600      0.6114888600      0.9122866200    
  H     -6.1892273200      0.5209515500      1.6935987800    
  C      1.6437218000      0.5402493100      0.8000005500    
  H     -0.2376311400      1.1395491400      1.8098153700    
  H     -0.3201419600      1.1392626200      0.0493589400    
  C      2.0122215700     -0.9350519700      0.4592789300    
  H      2.1365410400      0.8547408400      1.7252847700    
  H      2.0106273300      1.2095011100      0.0129905800    
  H      2.2529307200     -1.4625659700      1.3968637500    
  C      3.2648047400     -1.0110335500     -0.4372797700    
  C      0.4180836900     -1.1285237900     -1.5128486300    
  H      0.6359715000     -0.0676608600     -1.6722808300    
  H     -0.6264802400     -1.2930370400     -1.7948744900    
  H      1.0475702800     -1.7037256800     -2.2006510300    
  H      3.0545073000     -0.4671368800     -1.3699658600    
  C      3.6822884300     -2.4475341500     -0.7867348100    
  C      4.4138146500     -0.3222542500      0.2499079200    
  C      5.0835123000      0.7248840000     -0.2271487600    
  H      4.7138258700     -0.7502807300      1.2117855000    
  H      4.7821248700      1.1512038200     -1.1894985700    
  C      6.2268727400      1.4185439400      0.4591377400    
  C      5.7988949600      2.8489648500      0.8259760200    
  C      7.5003151800      1.3960336400     -0.4219597500    
  H      6.4559200400      0.8722626200      1.3882549900    
  H      8.2893825235      1.9286901944      0.1334300345    
  C      7.2632488295      2.1289148104     -1.7451517335    
  C      7.9846364695     -0.0302538256     -0.6975803359    
  H      5.6515874200      3.4506756100     -0.0797782300    
  H      6.5446106000      3.3500233300      1.4501638200    
  H      4.8531568600      2.8331094100      1.3775684200    
  H      6.9691793314      3.1703853134     -1.5835118275    
  H      6.4609472610      1.6394292578     -2.3127434953    
  H      8.1675092371      2.1183913943     -2.3635404829    
  H      8.3058375682     -0.5449354740      0.2123552951    
  H      8.8340835776     -0.0179531817     -1.3893143692    
  H      7.1851588510     -0.6233143865     -1.1605113010    
  H      2.9505276700     -2.9391767100     -1.4327658900    
  H      3.7951464400     -3.0515512000      0.1220123000    
  H      4.6440605200     -2.4439182600     -1.3110445700    
73
 Energy =        -1168.3616828200 Eh        #Cluster:     0
  C     -4.9970955600      0.2151337400     -0.4994928600    
  C     -6.4448492500     -0.1838003900     -0.6619555300    
  C     -7.3540414000      0.7603346300      0.1350759100    
  H     -6.6008698400     -1.2184816400     -0.3361250800    
  H     -6.7342648200     -0.1147645300     -1.7210794900    
  C     -4.7238973500      1.6309414100     -0.8317393400    
  C     -5.6547439200      2.6202012000     -0.1657949900    
  C     -7.1268698700      2.2074689000     -0.3051145900    
  H     -5.4959495400      3.6237627900     -0.5746624500    
  H     -5.4014204500      2.6660448500      0.9043253400    
  H     -7.4374041800      2.3018160400     -1.3546254900    
  H     -7.7625319600      2.8748051100      0.2883288900    
  O     -7.1430383300      0.5953810000      1.5472824700    
  H     -8.4031109300      0.4869088500     -0.0327242500    
  C     -4.0772516200     -0.6583761700     -0.0250680800    
  C     -3.7627750400      2.0106351300     -1.6808234700    
  H     -3.1153103500      1.2835236000     -2.1636767400    
  H     -3.6100863700      3.0606795500     -1.9189756700    
  C     -2.6936961000     -0.3628925300      0.2677947700    
  H     -4.4318995900     -1.6678537100      0.1797756900    
  C     -1.7432806500     -1.2495370200      0.6324500600    
  H     -2.4063349100      0.6832439100      0.1891654100    
  C     -1.9331742200     -2.7391576100      0.7642598800    
  C     -0.9259202000     -3.5166390500     -0.1057767000    
  H     -2.9511966100     -3.0527502800      0.5177221900    
  H     -1.7573360400     -3.0112407900      1.8171377800    
  C      0.5231174400     -3.0625083500      0.1173300700    
  H     -1.1957523100     -3.3921508300     -1.1621251000    
  H     -1.0131578200     -4.5878069900      0.1137968000    
  C      0.6813700100     -1.5461681200     -0.0598818500    
  H      1.1771646400     -3.6141505700     -0.5660944500    
  H      0.8320131600     -3.3267464000      1.1399705400    
  C     -0.3263467100     -0.8533960600      0.9133877800    
  H     -0.0768146900     -1.2659202900      1.9080531000    
  C      0.1010593600      0.6114888600      0.9122866200    
  H     -6.1892273200      0.5209515500      1.6935987800    
  C      1.6437218000      0.5402493100      0.8000005500    
  H     -0.2376311400      1.1395491400      1.8098153700    
  H     -0.3201419600      1.1392626200      0.0493589400    
  C      2.0122215700     -0.9350519700      0.4592789300    
  H      2.1365410400      0.8547408400      1.7252847700    
  H      2.0106273300      1.2095011100      0.0129905800    
  H      2.2529307200     -1.4625659700      1.3968637500    
  C      3.2648047400     -1.0110335500     -0.4372797700    
  C      0.4180836900     -1.1285237900     -1.5128486300    
  H      0.6359715000     -0.0676608600     -1.6722808300    
  H     -0.6264802400     -1.2930370400     -1.7948744900    
  H      1.0475702800     -1.7037256800     -2.2006510300    
  H      3.0545073000     -0.4671368800     -1.3699658600    
  C      3.6822884300     -2.4475341500     -0.7867348100    
  C      4.4138146500     -0.3222542500      0.2499079200    
  C      5.0835123000      0.7248840000     -0.2271487600    
  H      4.7138258700     -0.7502807300      1.2117855000    
  H      4.7821248700      1.1512038200     -1.1894985700    
  C      6.2268727400      1.4185439400      0.4591377400    
  C      5.7988949600      2.8489648500      0.8259760200    
  C      7.5003151800      1.3960336400     -0.4219597500    
  H      6.4559200400      0.8722626200      1.3882549900    
  H      7.7622110700      0.3383488953     -0.5878561450    
  C      8.6715254466      2.0767098374      0.2915517884    
  C      7.2690465469      2.0542667674     -1.7850715293    
  H      5.6515874200      3.4506756100     -0.0797782300    
  H      6.5446106000      3.3500233300      1.4501638200    
  H      4.8531568600      2.8331094100      1.3775684200    
  H      8.8993299781      1.5933666912      1.2464076079    
  H      8.4320372545      3.1281182236      0.4980224457    
  H      9.5731850047      2.0529092947     -0.3302567415    
  H      6.5398784429      1.5107517688     -2.3924886183    
  H      8.2057491493      2.0983701082     -2.3515084615    
  H      6.9070768242      3.0827571665     -1.6571036103    
  H      2.9505276700     -2.9391767100     -1.4327658900    
  H      3.7951464400     -3.0515512000      0.1220123000    
  H      4.6440605200     -2.4439182600     -1.3110445700    
